     NASTRAN  FILES=NPTP                                                             






                                  ****
                                *      *
                               *        *
                               *  N A S T R A N
                               *        *
                                *      *
                                  ****


                             SUN COMPUTER SYSTEMS    
                                SOLARIS VERSION

                          SYSTEM RELEASE -  1995 ED.

                                DISTRIBUTED BY

         COMPUTER SOFTWARE MANAGEMENT AND INFORMATION CENTER (COSMIC)
                 UNIVERSITY OF GEORGIA, ATHENS, GEORGIA 30602
                 PHONE: (706)542-3265      FAX: (706)542-4807
1                                                                           /    95 SUN SOLARIS NASTRAN    / FEB 25, ** / PAGE     2
                                                                                                                                    
0                                                                                                                                   
                                                                                                         
                                                                                                         
                         INSTALLATION CENTER USER INFORMATION GIVEN IN THIS SECTION                      
                                                                                                         
                                     *********************************************                       
                                     *                                           *                       
                                     *  PLEASE READ THE COMMENT IN DEMO PROBLEM  *                       
                                     *  D01002A ABOUT SYSTEM TIMING CONSTANTS    *                       
                                     *                                           *                       
                                     *********************************************                       
                                                                                                         
                         ===X=    TOP OF PAGE REQUEST IF 'X' IS REPLACED BY '='                          
                                                                                                         
1                                                                           /    95 SUN SOLARIS NASTRAN    / FEB 25, ** / PAGE     3
                                                                                                                                    
0                                                                                                                                   
0*** USER INFORMATION MESSAGE 225, GINO TIME CONSTANTS ARE BEING COMPUTED
     (SEE NASINFO FILE FOR ELIMINATION OF THESE COMPUTATIONS)
1                                                                           /    95 SUN SOLARIS NASTRAN    / FEB 25, ** / PAGE     4
                                                                                                                                    
0        N A S T R A N    E X E C U T I V E    C O N T R O L    D E C K    E C H O                                                  
0                                                                                                                                   
                                                                                                                                    
                                                                                                                                    
     ID    D01011A,NASTRAN                                                           
 XCSA DEBUG: OUTCRD(1:10)=
           3   538985545   538976288   808529988   541143345  1414742350   541999442  2147483647   538976288   538976288
 CARD=
ID    D01011A,NASTRAN                                                           
     CHKPNT   YES                                                                    
 XCSA DEBUG: OUTCRD(1:10)=
           2  1347110979   538989646   542328153   538976288  2147483647   541999442  2147483647   538976288   538976288
 CARD=
CHKPNT   YES                                                                    
     DIAG 15                                                                         
 XCSA DEBUG: OUTCRD(1:10)=
           1  1195460932   538976288          -1          15  2147483647   541999442  2147483647   538976288   538976288
 CARD=
DIAG 15                                                                         
     APP      DISPLACEMENT                                                           
 XCSA DEBUG: OUTCRD(1:10)=
           2   542134337   538976288  1347635524  1162035532  2147483647   541999442  2147483647   538976288   538976288
 CARD=
APP      DISPLACEMENT                                                           
     SOL      1,1                                                                    
 XCSA DEBUG: OUTCRD(1:10)=
           1   541871955   538976288          -1           1          -1           1  2147483647   538976288   538976288
 CARD=
SOL      1,1                                                                    
     TIME     15                                                                     
 XCSA DEBUG: OUTCRD(1:10)=
           1  1162692948   538976288          -1          15  2147483647           1  2147483647   538976288   538976288
 CARD=
TIME     15                                                                     
     CEND                                                                            
 XCSA DEBUG: OUTCRD(1:10)=
           1  1145980227   538976288  2147483647          15  2147483647           1  2147483647   538976288   538976288
 CARD=
CEND                                                                            
1                                                                           /    95 SUN SOLARIS NASTRAN    / FEB 25, ** / PAGE     5
                                                                                                                                    
0        N A S T R A N    E X E C U T I V E    C O N T R O L    D E C K    E C H O                                                  
0                                                                                                                                   
                                                                                                                                    
                                                                                                                                    
0ECHO OF FIRST CARD IN CHECKPOINT DICTIONARY TO BE PUNCHED OUT FOR THIS PROBLEM
0   RESTART   D01011A ,NASTRAN , 2/25/**,   58831,
1     DELTA WING WITH BICONVEX CROSS SECTION                                /    95 SUN SOLARIS NASTRAN    / FEB 25, ** / PAGE     6
      NASTRAN DEMONSTRATION PROBLEM NO. D01-01-1A                                                                                   
0     LOAD ON TRAILING EDGE                                                                                                         
0                                        C A S E    C O N T R O L   D E C K   E C H O                                               
                 CARD                                                                                                               
                 COUNT                                                                                                              
                  1      TITLE    = DELTA WING WITH BICONVEX CROSS SECTION                               
                  2      SUBTITLE = NASTRAN DEMONSTRATION PROBLEM NO. D01-01-1A                          
                  3      LABEL    = LOAD ON TRAILING EDGE                                                
                  4           SPC = 1                                                                    
                  5          LOAD = 1                                                                    
                  6      OUTPUT                                                                          
                  7      $   SET 1  HAS GRIDS ON THE UPPER SURFACE  * * * * * * * * * * * * * * *        
                  8      $   SET 2  HAS TOP SURFACE ELEMENTS, SHEAR(TRAILING AND LEADING EDGE),          
                  9      $   SHEAR(CENTERLINE - BOTH DIRECTIONS), SHEAR(TIP)   * * * * * * * *           
                 10      $                                                                               
                 11              SET 1 = 11 THRU 16,31 THRU 36,51 THRU 55,71 THRU 74,91 THRU 93          
                 12              SET 2 = 1 THRU 22,28 THRU 31, 35, 36, 41 THRU 44, 50                    
                 13      $                                                                               
                 14         DISPLACEMENTS = 1                                                            
                 15              SPCFORCE = ALL                                                          
                 16              ELSTRESS = 2                                                            
                 17      BEGIN BULK                                                                      


                        (NO. OF UNSORTED BULK DATA CARDS READ =   169, INCLUDING   0 COMMENT CARDS)
0*** USER INFORMATION MESSAGE 207, BULK DATA DECK IS NOT SORTED. NASTRAN WILL RE-ORDER THE INPUT DECK.
1     DELTA WING WITH BICONVEX CROSS SECTION                                /    95 SUN SOLARIS NASTRAN    / FEB 25, ** / PAGE     7
      NASTRAN DEMONSTRATION PROBLEM NO. D01-01-1A                                                                                   
0     LOAD ON TRAILING EDGE                                                                                                         
0                                                 S O R T E D   B U L K    D A T A    E C H O                                       
                     CARD                                                                                                           
                     COUNT        ---1--- +++2+++ ---3--- +++4+++ ---5--- +++6+++ ---7--- +++8+++ ---9--- +++10+++                  
                    1-        CONROD  100     11      12      1       .035                                    
                    2-        CONROD  101     12      13      1       .035                                    
                    3-        CONROD  102     13      14      1       .0344                                   
                    4-        CONROD  103     14      15      1       .0325                                   
                    5-        CONROD  104     15      16      1       .03                                     
                    6-        CONROD  105     31      32      1       .091                                    
                    7-        CONROD  106     32      33      1       .091                                    
                    8-        CONROD  107     33      34      1       .088                                    
                    9-        CONROD  108     34      35      1       .0719                                   
                   10-        CONROD  109     35      36      1       .0453                                   
                   11-        CONROD  110     51      52      1       .11                                     
                   12-        CONROD  111     52      53      1       .11                                     
                   13-        CONROD  112     53      54      1       .094                                    
                   14-        CONROD  113     54      55      1       .0563                                   
                   15-        CONROD  114     71      72      1       .091                                    
                   16-        CONROD  115     72      73      1       .091                                    
                   17-        CONROD  116     73      74      1       .0649                                   
                   18-        CONROD  117     91      92      1       .035                                    
                   19-        CONROD  118     92      93      1       .035                                    
                   20-        CONROD  119     12      32      1       .063                                    
                   21-        CONROD  120     32      52      1       .1002                                   
                   22-        CONROD  121     52      72      1       .1002                                   
                   23-        CONROD  122     72      92      1       .063                                    
                   24-        CONROD  123     13      33      1       .063                                    
                   25-        CONROD  124     33      53      1       .1002                                   
                   26-        CONROD  125     53      73      1       .1002                                   
                   27-        CONROD  126     73      93      1       .063                                    
                   28-        CONROD  127     14      34      1       .0572                                   
                   29-        CONROD  128     34      54      1       .0805                                   
                   30-        CONROD  129     54      74      1       .0572                                   
                   31-        CONROD  130     15      35      1       .0474                                   
                   32-        CONROD  131     35      55      1       .0474                                   
                   33-        CONROD  132     16      36      1       .028                                    
                   34-        CONROD  133     93      74      1       .0344                                   
                   35-        CONROD  134     74      55      1       .0325                                   
                   36-        CONROD  135     55      36      1       .03                                     
                   37-        CQDMEM  1       1       11      12      32      31                              
                   38-        CQDMEM  2       1       12      13      33      32                              
                   39-        CQDMEM  3       1       13      14      34      33                              
                   40-        CQDMEM  4       1       14      15      35      34                              
                   41-        CQDMEM  5       1       15      16      36      35                              
                   42-        CQDMEM  6       1       31      32      52      51                              
                   43-        CQDMEM  7       1       32      33      53      52                              
                   44-        CQDMEM  8       1       33      34      54      53                              
                   45-        CQDMEM  9       1       34      35      55      54                              
                   46-        CQDMEM  11      1       51      52      72      71                              
                   47-        CQDMEM  12      1       52      53      73      72                              
1     DELTA WING WITH BICONVEX CROSS SECTION                                /    95 SUN SOLARIS NASTRAN    / FEB 25, ** / PAGE     8
      NASTRAN DEMONSTRATION PROBLEM NO. D01-01-1A                                                                                   

      LOAD ON TRAILING EDGE                                                                                                         

                                                  S O R T E D   B U L K    D A T A    E C H O                                       
                     CARD                                                                                                           
                     COUNT        ---1--- +++2+++ ---3--- +++4+++ ---5--- +++6+++ ---7--- +++8+++ ---9--- +++10+++                  
                   48-        CQDMEM  13      1       53      54      74      73                              
                   49-        CQDMEM  15      1       71      72      92      91                              
                   50-        CQDMEM  16      1       72      73      93      92                              
                   51-        CROD    60      5       1       11      61      6       2       12              
                   52-        CROD    62      8       3       13      63      8       4       14              
                   53-        CROD    64      8       5       15      65      6       6       16              
                   54-        CROD    66      6       21      31      67      7       22      32              
                   55-        CROD    68      9       23      33      69      9       24      34              
                   56-        CROD    70      9       25      35      71      8       26      36              
                   57-        CROD    72      6       41      51      73      7       42      52              
                   58-        CROD    74      9       43      53      75      9       44      54              
                   59-        CROD    76      9       45      55      77      6       61      71              
                   60-        CROD    78      7       62      72      79      9       63      73              
                   61-        CROD    80      9       64      74      81      5       81      91              
                   62-        CROD    82      6       82      92      83      8       83      93              
                   63-        CSHEAR  18      2       1       2       12      11                              
                   64-        CSHEAR  19      2       2       3       13      12                              
                   65-        CSHEAR  20      2       3       4       14      13                              
                   66-        CSHEAR  21      2       4       5       15      14                              
                   67-        CSHEAR  22      2       5       6       16      15                              
                   68-        CSHEAR  23      2       21      22      32      31                              
                   69-        CSHEAR  24      2       22      23      33      32                              
                   70-        CSHEAR  25      2       23      24      34      33                              
                   71-        CSHEAR  26      2       24      25      35      34                              
                   72-        CSHEAR  27      2       25      26      36      35                              
                   73-        CSHEAR  28      2       41      42      52      51                              
                   74-        CSHEAR  29      2       42      43      53      52                              
                   75-        CSHEAR  30      2       43      44      54      53                              
                   76-        CSHEAR  31      2       44      45      55      54                              
                   77-        CSHEAR  32      2       61      62      72      71                              
                   78-        CSHEAR  33      2       62      63      73      72                              
                   79-        CSHEAR  34      2       63      64      74      73                              
                   80-        CSHEAR  35      2       81      82      92      91                              
                   81-        CSHEAR  36      2       82      83      93      92                              
                   82-        CSHEAR  37      2       2       22      32      12                              
                   83-        CSHEAR  38      2       22      42      52      32                              
                   84-        CSHEAR  39      2       42      62      72      52                              
                   85-        CSHEAR  40      2       62      82      92      72                              
                   86-        CSHEAR  41      2       3       23      33      13                              
                   87-        CSHEAR  42      2       23      43      53      33                              
                   88-        CSHEAR  43      2       43      63      73      53                              
                   89-        CSHEAR  44      2       63      83      93      73                              
                   90-        CSHEAR  45      2       4       24      34      14                              
                   91-        CSHEAR  46      2       24      44      54      34                              
                   92-        CSHEAR  47      2       44      64      74      54                              
                   93-        CSHEAR  48      2       5       25      35      15                              
                   94-        CSHEAR  49      2       25      45      55      35                              
1     DELTA WING WITH BICONVEX CROSS SECTION                                /    95 SUN SOLARIS NASTRAN    / FEB 25, ** / PAGE     9
      NASTRAN DEMONSTRATION PROBLEM NO. D01-01-1A                                                                                   

      LOAD ON TRAILING EDGE                                                                                                         

                                                  S O R T E D   B U L K    D A T A    E C H O                                       
                     CARD                                                                                                           
                     COUNT        ---1--- +++2+++ ---3--- +++4+++ ---5--- +++6+++ ---7--- +++8+++ ---9--- +++10+++                  
                   95-        CSHEAR  50      2       6       26      36      16                              
                   96-        CSHEAR  51      2       26      45      55      36                              
                   97-        CSHEAR  52      2       45      64      74      55                              
                   98-        CSHEAR  53      2       64      83      93      74                              
                   99-        CTRMEM  10      3       35      36      55                                      
                  100-        CTRMEM  14      3       54      55      74                                      
                  101-        CTRMEM  17      3       73      74      93                                      
                  102-        FORCE   1       16      0       -1.     .0      .0      500.                    
                  103-        FORCE   2       36              -1.0    .0      .0      500.0                   
                  104-        GRDSET                                                  456                     
                  105-        GRID    1               .0      .0      .0                                      
                  106-        GRID    2               10.     .0      .0                                      
                  107-        GRID    3               30.     .0      .0                                      
                  108-        GRID    4               50.     .0      .0                                      
                  109-        GRID    5               70.     .0      .0                                      
                  110-        GRID    6               90.     .0      .0                                      
                  111-        GRID    11              .0      .0      .82                                     
                  112-        GRID    12              10.     .0      .82                                     
                  113-        GRID    13              30.     .0      .82                                     
                  114-        GRID    14              50.     .0      .795                                    
                  115-        GRID    15              70.     .0      .754                                    
                  116-        GRID    16              90.     .0      .67                                     
                  117-        GRID    21              .0      20.     .0                                      
                  118-        GRID    22              10.     20.     .0                                      
                  119-        GRID    23              30.     20.     .0                                      
                  120-        GRID    24              50.     20.     .0                                      
                  121-        GRID    25              70.     20.     .0                                      
                  122-        GRID    26              90.     20.     .0                                      
                  123-        GRID    31              .0      20.     2.02                                    
                  124-        GRID    32              10.     20.     2.02                                    
                  125-        GRID    33              30.     20.     2.02                                    
                  126-        GRID    34              50.     20.     1.795                                   
                  127-        GRID    35              70.     20.     1.42                                    
                  128-        GRID    36              90.     20.     .67                                     
                  129-        GRID    41              .0      40.     .0                                      
                  130-        GRID    42              10.     40.     .0                                      
                  131-        GRID    43              30.     40.     .0                                      
                  132-        GRID    44              50.     40.     .0                                      
                  133-        GRID    45              70.     40.     .0                                      
                  134-        GRID    51              .0      40.     2.42                                    
                  135-        GRID    52              10.     40.     2.42                                    
                  136-        GRID    53              30.     40.     2.42                                    
                  137-        GRID    54              50.     40.     1.795                                   
                  138-        GRID    55              70.     40.     .754                                    
                  139-        GRID    61              .0      60.     .0                                      
                  140-        GRID    62              10.     60.     .0                                      
                  141-        GRID    63              30.     60.     .0                                      
1     DELTA WING WITH BICONVEX CROSS SECTION                                /    95 SUN SOLARIS NASTRAN    / FEB 25, ** / PAGE    10
      NASTRAN DEMONSTRATION PROBLEM NO. D01-01-1A                                                                                   

      LOAD ON TRAILING EDGE                                                                                                         

                                                  S O R T E D   B U L K    D A T A    E C H O                                       
                     CARD                                                                                                           
                     COUNT        ---1--- +++2+++ ---3--- +++4+++ ---5--- +++6+++ ---7--- +++8+++ ---9--- +++10+++                  
                  142-        GRID    64              50.     60.     .0                                      
                  143-        GRID    71              .0      60.     2.02                                    
                  144-        GRID    72              10.     60.     2.02                                    
                  145-        GRID    73              30.     60.     2.02                                    
                  146-        GRID    74              50.     60.     .795                                    
                  147-        GRID    81              .0      80.     .0                                      
                  148-        GRID    82              10.     80.     .0                                      
                  149-        GRID    83              30.     80.     .0                                      
                  150-        GRID    91              .0      80.     .82                                     
                  151-        GRID    92              10.     80.     .82                                     
                  152-        GRID    93              30.     80.     .82                                     
                  153-        MAT1    1       10.4  +64.   +6                                                 
                  154-        MAT1    2       1.04+7  4.+6            .2523-3                                 
                  155-        PARAM   IRES    1                                                               
                  156-        PQDMEM  1       2       .16     .0                                              
                  157-        PROD    5       1       2.1                                                     
                  158-        PROD    6       1       3.5                                                     
                  159-        PROD    7       1       4.91                                                    
                  160-        PROD    8       1       4.2                                                     
                  161-        PROD    9       1       5.6                                                     
                  162-        PSHEAR  2       2       .14     .0                                              
                  163-        PTRMEM  3       2       .16     .0                                              
                  164-        SPC1    1       1       11      31      51      71      91                      
                  165-        SPC1    1       3       13      33      53      73      93                      
                  166-        SPC1    1       12      1       2       3       4       5       6       +SPC-A  
                  167-        +SPC-A  21      22      23      24      25      26      41      42      +SPC-B  
                  168-        +SPC-B  43      44      45      61      62      63      64      81      +SPC-C  
                  169-        +SPC-C  82      83                                                              
                              ENDDATA
1     DELTA WING WITH BICONVEX CROSS SECTION                                /    95 SUN SOLARIS NASTRAN    / FEB 25, ** / PAGE    11
      NASTRAN DEMONSTRATION PROBLEM NO. D01-01-1A                                                                                   
0     LOAD ON TRAILING EDGE                                                                                                         
         CONTINUATION OF CHECKPOINT DICTIONARY
 
         1,   XVPS    ,   FLAGS = 0,   REEL =  1,   FILE =      5
1     DELTA WING WITH BICONVEX CROSS SECTION                                /    95 SUN SOLARIS NASTRAN    / FEB 25, ** / PAGE    12
      NASTRAN DEMONSTRATION PROBLEM NO. D01-01-1A                                                                                   
0     LOAD ON TRAILING EDGE                                                                                                         
0*** USER INFORMATION MESSAGES FROM RESEQUENCING PROCESSOR - BANDIT     (CRI= 1,  MTH= 3,  MPC= 0,  DEP=-1,  PCH=-1)

                               BEFORE RESEQUENCING - - -
                                        BANDWIDTH           19
                                        PROFILE            509
                                        MAX WAVEFRONT       17
                                        AVG WAVEFRONT   10.604
                                        RMS WAVEFRONT   11.331
                                        RMS BANDWIDTH   12.060

                               AFTER RESEQUENCING BY GIBBS-POOLE-STOCKMEYER (GPS) ALGORITHM - - -
                                        BANDWIDTH           15
                                        PROFILE            486
                                        MAX WAVEFRONT       15
                                        AVG WAVEFRONT   10.125
                                        RMS WAVEFRONT   10.743
                                        RMS BANDWIDTH   10.914


                                                     *** BANDIT SUMMARY ***

                                                                        BEFORE     AFTER
                                        BANDWIDTH (B)                       19        15
                                        PROFILE (P)                        509       486
                                        MAXIMUM WAVEFRONT (C-MAX)           17        15
                                        AVERAGE WAVEFRONT (C-AVG)       10.604    10.125
                                        RMS WAVEFRONT (C-RMS)           11.331    10.743
                                        RMS BANDWITCH (B-RMS)           12.060    10.914
                                        NUMBER OF GRID POINTS (N)                     48
                                        NUMBER OF ELEMENTS (NON-RIGID)               113
                                        NUMBER OF RIGID ELEMENTS PROCESSED*            0
                                        NUMBER OF MPC  EQUATIONS PROCESSED*            0
                                        NUMBER OF COMPONENTS                           1
                                        MAXIMUM NODAL DEGREE                          13
                                        MINIMUM NODAL DEGREE                           3
                                        NUMBER OF UNIQUE EDGES                       200
                                        MATRIX DENSITY, PERCENT                   19.444
                                        NUMBER OF POINTS OF ZERO DEGREE                0
                                        BANDIT OPEN CORE                         1998969
                                        CRITERION*                         RMS WAVEFRONT
                                        METHOD USED*                                 GPS
                                        NO. OF SEQGP CARDS GENERATED                  12

                               (* THESE DEFAULT OPTIONS CAN BE OVERRIDDEN BY THE NASTRAN CARD)
1     DELTA WING WITH BICONVEX CROSS SECTION                                /    95 SUN SOLARIS NASTRAN    / FEB 25, ** / PAGE    13
      NASTRAN DEMONSTRATION PROBLEM NO. D01-01-1A                                                                                   
0     LOAD ON TRAILING EDGE                                                                                                         


                                   S Y S T E M  G E N E R A T E D  S E Q G P  C A R D S

                         SEQGP          1       1       2       4       3      11       4      13
                         SEQGP          5       7       6       2      11       3      12       5
                         SEQGP         13      12      14      14      15      10      16       6
                         SEQGP         21      27      22      18      23      24      24      25
                         SEQGP         25      15      26       8      31      16      32      17
                         SEQGP         33      19      34      23      35      20      36       9
                         SEQGP         41      37      42      30      43      32      44      26
                         SEQGP         45      21      51      28      52      29      53      31
                         SEQGP         54      33      55      22      61      44      62      40
                         SEQGP         63      36      64      34      71      38      72      39
                         SEQGP         73      41      74      35      81      48      82      47
                         SEQGP         83      42      91      45      92      46      93      43
0         **NO ERRORS FOUND - EXECUTE NASTRAN PROGRAM**
1     DELTA WING WITH BICONVEX CROSS SECTION                                /    95 SUN SOLARIS NASTRAN    / FEB 25, ** / PAGE    14
      NASTRAN DEMONSTRATION PROBLEM NO. D01-01-1A                                                                                   
0     LOAD ON TRAILING EDGE                                                                                                         
0        ADDITIONS TO CHECKPOINT DICTIONARY                                                                                         
                                                                                                                                    
                                                                                                                                    
 
         2,   REENTER AT DMAP SEQUENCE NUMBER    12
         3,   GPL     ,   FLAGS = 0,   REEL =  1,   FILE =      6
         4,   EQEXIN  ,   FLAGS = 0,   REEL =  1,   FILE =      7
         5,   GPDT    ,   FLAGS = 0,   REEL =  1,   FILE =      8
         6,   BGPDT   ,   FLAGS = 0,   REEL =  1,   FILE =      9
         7,   SIL     ,   FLAGS = 0,   REEL =  1,   FILE =     10
         8,   XVPS    ,   FLAGS = 0,   REEL =  1,   FILE =     11
         9,   CSTM    ,   FLAGS = 0,   REEL =  0,   FILE =      0
 
        10,   REENTER AT DMAP SEQUENCE NUMBER    13
        11,   XVPS    ,   FLAGS = 0,   REEL =  1,   FILE =     12
        12,   MPTA    ,   FLAGS = 0,   REEL =  0,   FILE =      0
 
        13,   REENTER AT DMAP SEQUENCE NUMBER    14
        14,   MPT     ,   FLAGS = 0,   REEL =  1,   FILE =     13
        15,   XVPS    ,   FLAGS = 0,   REEL =  1,   FILE =     14
 
        16,   REENTER AT DMAP SEQUENCE NUMBER    15
        17,   BGPDP   ,   FLAGS = 0,   REEL =  1,   FILE =     15
        18,   SIP     ,   FLAGS = 0,   REEL =  1,   FILE =     16
        19,   XVPS    ,   FLAGS = 0,   REEL =  1,   FILE =     17
 
        20,   REENTER AT DMAP SEQUENCE NUMBER    16
        21,   ECT     ,   FLAGS = 0,   REEL =  1,   FILE =     18
        22,   XVPS    ,   FLAGS = 0,   REEL =  1,   FILE =     19
 
        23,   REENTER AT DMAP SEQUENCE NUMBER    18
        24,   XVPS    ,   FLAGS = 0,   REEL =  1,   FILE =     20
        25,   PLTSETX ,   FLAGS = 0,   REEL =  0,   FILE =      0
        26,   PLTPAR  ,   FLAGS = 0,   REEL =  0,   FILE =      0
        27,   GPSETS  ,   FLAGS = 0,   REEL =  0,   FILE =      0
        28,   ELSETS  ,   FLAGS = 0,   REEL =  0,   FILE =      0
 
        29,   REENTER AT DMAP SEQUENCE NUMBER    28
        30,   SLT     ,   FLAGS = 0,   REEL =  1,   FILE =     21
        31,   XVPS    ,   FLAGS = 0,   REEL =  1,   FILE =     22
        32,   GPTT    ,   FLAGS = 0,   REEL =  0,   FILE =      0
 
        33,   REENTER AT DMAP SEQUENCE NUMBER    30
        34,   EST     ,   FLAGS = 0,   REEL =  1,   FILE =     23
        35,   GPECT   ,   FLAGS = 0,   REEL =  1,   FILE =     24
        36,   XVPS    ,   FLAGS = 0,   REEL =  1,   FILE =     25
        37,   GEI     ,   FLAGS = 0,   REEL =  0,   FILE =      0
        38,   MPTX    ,   FLAGS = 0,   REEL =  0,   FILE =      0
        39,   PCOMPS  ,   FLAGS = 0,   REEL =  0,   FILE =      0
1     DELTA WING WITH BICONVEX CROSS SECTION                                /    95 SUN SOLARIS NASTRAN    / FEB 25, ** / PAGE    15
      NASTRAN DEMONSTRATION PROBLEM NO. D01-01-1A                                                                                   
0     LOAD ON TRAILING EDGE                                                                                                         
0        ADDITIONS TO CHECKPOINT DICTIONARY                                                                                         
                                                                                                                                    
                                                                                                                                    
        40,   EPTX    ,   FLAGS = 0,   REEL =  0,   FILE =      0
 
        41,   REENTER AT DMAP SEQUENCE NUMBER    31
        42,   MPT     ,   FLAGS = 0,   REEL =  1,   FILE =     26
        43,   EPT     ,   FLAGS = 0,   REEL =  1,   FILE =     27
        44,   XVPS    ,   FLAGS = 0,   REEL =  1,   FILE =     28
 
        45,   REENTER AT DMAP SEQUENCE NUMBER    34
        46,   XVPS    ,   FLAGS = 0,   REEL =  1,   FILE =     29
        47,   KGGX    ,   FLAGS = 0,   REEL =  0,   FILE =      0
 
        48,   REENTER AT DMAP SEQUENCE NUMBER    35
        49,   XVPS    ,   FLAGS = 0,   REEL =  1,   FILE =     30
        50,   OPTP1   ,   FLAGS = 0,   REEL =  0,   FILE =      0
 
        51,   REENTER AT DMAP SEQUENCE NUMBER    39
        52,   XVPS    ,   FLAGS = 0,   REEL =  1,   FILE =     31
        53,   OPTP2   ,   FLAGS = 0,   REEL =  0,   FILE =      0
        54,   EST1    ,   FLAGS = 0,   REEL =  0,   FILE =      0
0*** USER INFORMATION MESSAGE 238, TURN DIAG 38 ON FOR ADDITIONAL ELEMENT PROCESSING INFORMATION

0*** USER INFORMATION MESSAGE 3113,
     EMG MODULE PROCESSING DOUBLE PRECISION CONROD   ELEMENTS (ELEMENT TYPE  10) STARTING WITH ID      100
0*** USER INFORMATION MESSAGE 3113,
     EMG MODULE PROCESSING DOUBLE PRECISION QDMEM    ELEMENTS (ELEMENT TYPE  16) STARTING WITH ID        1
0*** USER INFORMATION MESSAGE 3113,
     EMG MODULE PROCESSING DOUBLE PRECISION ROD      ELEMENTS (ELEMENT TYPE   1) STARTING WITH ID       60
0*** USER INFORMATION MESSAGE 3113,
     EMG MODULE PROCESSING DOUBLE PRECISION SHEAR    ELEMENTS (ELEMENT TYPE   4) STARTING WITH ID       18
0*** USER INFORMATION MESSAGE 3113,
     EMG MODULE PROCESSING DOUBLE PRECISION TRMEM    ELEMENTS (ELEMENT TYPE   9) STARTING WITH ID       10
 
        55,   REENTER AT DMAP SEQUENCE NUMBER    40
        56,   KELM    ,   FLAGS = 0,   REEL =  1,   FILE =     32
        57,   KDICT   ,   FLAGS = 0,   REEL =  1,   FILE =     33
        58,   XVPS    ,   FLAGS = 0,   REEL =  1,   FILE =     34
        59,   MELM    ,   FLAGS = 0,   REEL =  0,   FILE =      0
        60,   MDICT   ,   FLAGS = 0,   REEL =  0,   FILE =      0
 
        61,   REENTER AT DMAP SEQUENCE NUMBER    42
        62,   KGGX    ,   FLAGS = 0,   REEL =  1,   FILE =     35
1     DELTA WING WITH BICONVEX CROSS SECTION                                /    95 SUN SOLARIS NASTRAN    / FEB 25, ** / PAGE    16
      NASTRAN DEMONSTRATION PROBLEM NO. D01-01-1A                                                                                   
0     LOAD ON TRAILING EDGE                                                                                                         
0        ADDITIONS TO CHECKPOINT DICTIONARY                                                                                         
                                                                                                                                    
                                                                                                                                    
        63,   XVPS    ,   FLAGS = 0,   REEL =  1,   FILE =     36
 
        64,   REENTER AT DMAP SEQUENCE NUMBER    44
        65,   XVPS    ,   FLAGS = 0,   REEL =  1,   FILE =     37
        66,   MGG     ,   FLAGS = 0,   REEL =  0,   FILE =      0
 
        67,   REENTER AT DMAP SEQUENCE NUMBER    54
        68,   KGGX    ,   FLAGS = 4,   REEL =  1,   FILE =     35
        69,   KGG     ,   FLAGS = 4,   REEL =  1,   FILE =     35
        70,   XVPS    ,   FLAGS = 0,   REEL =  1,   FILE =     38
 
        71,   REENTER AT DMAP SEQUENCE NUMBER    58
        72,   GPST    ,   FLAGS = 0,   REEL =  1,   FILE =     39
        73,   XVPS    ,   FLAGS = 0,   REEL =  1,   FILE =     40
 
        74,   REENTER AT DMAP SEQUENCE NUMBER    61
        75,   YS      ,   FLAGS = 0,   REEL =  1,   FILE =     41
        76,   USET    ,   FLAGS = 0,   REEL =  1,   FILE =     42
        77,   XVPS    ,   FLAGS = 0,   REEL =  1,   FILE =     43
        78,   RG      ,   FLAGS = 0,   REEL =  0,   FILE =      0
        79,   ASET    ,   FLAGS = 0,   REEL =  0,   FILE =      0
        80,   OGPST   ,   FLAGS = 0,   REEL =  0,   FILE =      0
 
        81,   REENTER AT DMAP SEQUENCE NUMBER    65
        82,   XVPS    ,   FLAGS = 0,   REEL =  1,   FILE =     44
        83,   KRR     ,   FLAGS = 0,   REEL =  0,   FILE =      0
        84,   KLR     ,   FLAGS = 0,   REEL =  0,   FILE =      0
        85,   QR      ,   FLAGS = 0,   REEL =  0,   FILE =      0
        86,   DM      ,   FLAGS = 0,   REEL =  0,   FILE =      0
        87,   GM      ,   FLAGS = 0,   REEL =  0,   FILE =      0
        88,   GO      ,   FLAGS = 0,   REEL =  0,   FILE =      0
        89,   KOO     ,   FLAGS = 0,   REEL =  0,   FILE =      0
        90,   LOO     ,   FLAGS = 0,   REEL =  0,   FILE =      0
        91,   PO      ,   FLAGS = 0,   REEL =  0,   FILE =      0
        92,   UOOV    ,   FLAGS = 0,   REEL =  0,   FILE =      0
        93,   RUOV    ,   FLAGS = 0,   REEL =  0,   FILE =      0
        94,   PS      ,   FLAGS = 0,   REEL =  0,   FILE =      0
        95,   KFS     ,   FLAGS = 0,   REEL =  0,   FILE =      0
        96,   KSS     ,   FLAGS = 0,   REEL =  0,   FILE =      0
        97,   QG      ,   FLAGS = 0,   REEL =  0,   FILE =      0
 
        98,   REENTER AT DMAP SEQUENCE NUMBER    66
        99,   KNN     ,   FLAGS = 4,   REEL =  1,   FILE =     35
       100,   XVPS    ,   FLAGS = 0,   REEL =  1,   FILE =     45
 
       101,   REENTER AT DMAP SEQUENCE NUMBER    71
       102,   XVPS    ,   FLAGS = 0,   REEL =  1,   FILE =     46
       103,   KFF     ,   FLAGS = 0,   REEL =  0,   FILE =      0
 
       104,   REENTER AT DMAP SEQUENCE NUMBER    73
       105,   KFF     ,   FLAGS = 0,   REEL =  1,   FILE =     47
       106,   KFS     ,   FLAGS = 0,   REEL =  1,   FILE =     48
       107,   KSS     ,   FLAGS = 0,   REEL =  1,   FILE =     49
       108,   XVPS    ,   FLAGS = 0,   REEL =  1,   FILE =     50
 
       109,   REENTER AT DMAP SEQUENCE NUMBER    75
       110,   KFF     ,   FLAGS = 4,   REEL =  1,   FILE =     47
       111,   KAA     ,   FLAGS = 4,   REEL =  1,   FILE =     47
       112,   XVPS    ,   FLAGS = 0,   REEL =  1,   FILE =     51
 
       113,   REENTER AT DMAP SEQUENCE NUMBER    79
       114,   KLL     ,   FLAGS = 4,   REEL =  1,   FILE =     47
       115,   XVPS    ,   FLAGS = 0,   REEL =  1,   FILE =     52
 
       116,   REENTER AT DMAP SEQUENCE NUMBER    83
       117,   LLL     ,   FLAGS = 0,   REEL =  1,   FILE =     53
       118,   XVPS    ,   FLAGS = 0,   REEL =  1,   FILE =     54
 
       119,   REENTER AT DMAP SEQUENCE NUMBER    87
       120,   PG      ,   FLAGS = 0,   REEL =  1,   FILE =     55
       121,   XVPS    ,   FLAGS = 0,   REEL =  1,   FILE =     56
 
       122,   REENTER AT DMAP SEQUENCE NUMBER    88
       123,   XVPS    ,   FLAGS = 0,   REEL =  1,   FILE =     57
       124,   PL      ,   FLAGS = 0,   REEL =  0,   FILE =      0
1     DELTA WING WITH BICONVEX CROSS SECTION                                /    95 SUN SOLARIS NASTRAN    / FEB 25, ** / PAGE    17
      NASTRAN DEMONSTRATION PROBLEM NO. D01-01-1A                                                                                   
0     LOAD ON TRAILING EDGE                                                                                                         
0        ADDITIONS TO CHECKPOINT DICTIONARY                                                                                         
                                                                                                                                    
                                                                                                                                    
 
       125,   REENTER AT DMAP SEQUENCE NUMBER    90
       126,   PS      ,   FLAGS = 0,   REEL =  1,   FILE =     58
       127,   PL      ,   FLAGS = 0,   REEL =  1,   FILE =     59
       128,   XVPS    ,   FLAGS = 0,   REEL =  1,   FILE =     60
0*** USER INFORMATION MESSAGE 3035
     FOR SUBCASE NUMBER     1, EPSILON SUB E =  -4.3392368E-03
0*** USER WARNING  MESSAGE  3058
0EPSILON IS LARGER THAN  1.0000000E-03 FOR SUBCASE    1
 
       129,   REENTER AT DMAP SEQUENCE NUMBER    92
       130,   ULV     ,   FLAGS = 0,   REEL =  1,   FILE =     61
       131,   RULV    ,   FLAGS = 0,   REEL =  1,   FILE =     62
       132,   XVPS    ,   FLAGS = 0,   REEL =  1,   FILE =     63
1     DELTA WING WITH BICONVEX CROSS SECTION                                /    95 SUN SOLARIS NASTRAN    / FEB 25, ** / PAGE    18
      NASTRAN DEMONSTRATION PROBLEM NO. D01-01-1A                                                                                   
0     LOAD ON TRAILING EDGE                                                                                                         
0                RULV                                                                                                               
         POINT          VALUE     POINT          VALUE     P0INT          VALUE     POINT          VALUE      POINT          VALUE  
                                                                                                                                    
0COLUMN       1 (       1-T3).
             1 T3  2.66198E-10        6 T3 -4.40991E-09       11 T2 -2.84217E-13       11 T3 -1.68754E-10        2 T3  9.75717E-11
            12 T1 -5.68434E-13       12 T2 -2.27374E-13       12 T3  2.30131E-10       16 T1 -1.50067E-11       16 T2  7.73070E-12
            16 T3  2.07927E-09        5 T3 -1.21599E-09       26 T3  1.07843E-09       36 T1  1.81899E-12       36 T2 -5.45697E-12
            36 T3 -6.39005E-09       15 T1 -3.06954E-11       15 T2 -7.70228E-12       15 T3  4.21837E-10        3 T3  2.55913E-13
            13 T1  7.84439E-12       13 T2  1.75637E-13        4 T3 -4.07567E-11       14 T1 -5.22959E-12       14 T2  4.54747E-12
            14 T3 -5.34328E-10       25 T3  4.70209E-10       31 T2  1.13687E-13       31 T3  7.12319E-11       32 T1 -1.42109E-13
            32 T2  9.09495E-13       32 T3 -2.76366E-11       22 T3 -2.09752E-11       33 T1  9.35074E-12       33 T2 -2.84217E-13
            35 T1 -1.22213E-12       35 T2  7.78755E-12       35 T3  2.91309E-09       45 T3  1.96621E-10       55 T1  1.18234E-11
            55 T2 -4.54747E-13       55 T3 -6.40632E-10       34 T1 -1.81899E-12       34 T2 -7.27596E-12       34 T3  1.00840E-10
            23 T3 -2.53346E-13       24 T3 -5.69571E-11       44 T3  2.72266E-10       21 T3 -1.16415E-10       51 T2 -8.52651E-14
            51 T3  2.68683E-11       52 T1 -1.13687E-12       52 T2  5.68434E-13       52 T3 -8.07248E-11       42 T3  2.11173E-11
            53 T1  2.19139E-12       53 T2  5.25802E-13       43 T3  3.55271E-14       54 T1 -7.66676E-12       54 T2 -1.97392E-12
            54 T3 -5.19272E-10       64 T3 -5.08265E-10       74 T1  5.40012E-13       74 T2 -1.96110E-12       74 T3  2.38084E-10
            63 T3 -2.57572E-14       41 T3 -5.82077E-11       71 T2 -2.13163E-13       71 T3  8.32401E-12       72 T1 -2.07420E-13
            72 T2  4.54747E-13       72 T3 -6.85816E-11       62 T3 -2.28368E-11       73 T1 -1.44951E-12       83 T3  2.13163E-14
            93 T1 -1.36424E-12       93 T2  1.10845E-12       61 T3  1.16415E-10       91 T2  2.27374E-13       91 T3  5.82077E-11
            92 T1 -2.27374E-13       92 T2  9.09495E-13       92 T3  5.89356E+00       82 T3 -9.91042E+01       81 T3  5.94625E+00
1     DELTA WING WITH BICONVEX CROSS SECTION                                /    95 SUN SOLARIS NASTRAN    / FEB 25, ** / PAGE    19
      NASTRAN DEMONSTRATION PROBLEM NO. D01-01-1A                                                                                   
0     LOAD ON TRAILING EDGE                                                                                                         
0        ADDITIONS TO CHECKPOINT DICTIONARY                                                                                         
                                                                                                                                    
                                                                                                                                    
 
       133,   REENTER AT DMAP SEQUENCE NUMBER    97
       134,   UGV     ,   FLAGS = 0,   REEL =  1,   FILE =     64
       135,   PGG     ,   FLAGS = 0,   REEL =  1,   FILE =     65
       136,   QG      ,   FLAGS = 0,   REEL =  1,   FILE =     66
       137,   XVPS    ,   FLAGS = 0,   REEL =  1,   FILE =     67
 
       138,   REENTER AT DMAP SEQUENCE NUMBER   104
       139,   XVPS    ,   FLAGS = 0,   REEL =  1,   FILE =     68
       140,   ONRGY1  ,   FLAGS = 0,   REEL =  0,   FILE =      0
       141,   OGPFB1  ,   FLAGS = 0,   REEL =  0,   FILE =      0
 
       142,   REENTER AT DMAP SEQUENCE NUMBER   105
       143,   XVPS    ,   FLAGS = 0,   REEL =  1,   FILE =     69
       144,   KDICT   ,   FLAGS = 0,   REEL =  0,   FILE =      0
       145,   KELM    ,   FLAGS = 0,   REEL =  0,   FILE =      0
0*** SYSTEM WARNING MESSAGE 3022
+                                 (SEE PROG. MANUAL SEC. 4.9.7, OR USERS' MANUAL P. 6.5-3)
     DATA BLOCK ONRGY1   MAY BE REQUIRED AS INPUT AND IS NOT OUTPUT BY A PREVIOUS MODULE IN THE CURRENT DMAP ROUTE.
 
       146,   REENTER AT DMAP SEQUENCE NUMBER   111
       147,   OQG1    ,   FLAGS = 0,   REEL =  1,   FILE =     70
       148,   OUGV1   ,   FLAGS = 0,   REEL =  1,   FILE =     71
       149,   OES1    ,   FLAGS = 0,   REEL =  1,   FILE =     72
       150,   XVPS    ,   FLAGS = 0,   REEL =  1,   FILE =     73
       151,   OPG1    ,   FLAGS = 0,   REEL =  0,   FILE =      0
       152,   OEF1    ,   FLAGS = 0,   REEL =  0,   FILE =      0
       153,   PUGV1   ,   FLAGS = 0,   REEL =  0,   FILE =      0
       154,   OES1L   ,   FLAGS = 0,   REEL =  0,   FILE =      0
       155,   OEF1L   ,   FLAGS = 0,   REEL =  0,   FILE =      0
 
       156,   REENTER AT DMAP SEQUENCE NUMBER   115
       157,   XVPS    ,   FLAGS = 0,   REEL =  1,   FILE =     74
       158,   OES1M   ,   FLAGS = 0,   REEL =  0,   FILE =      0
 
       159,   REENTER AT DMAP SEQUENCE NUMBER   121
       160,   XVPS    ,   FLAGS = 0,   REEL =  1,   FILE =     75
       161,   OES1A   ,   FLAGS = 0,   REEL =  0,   FILE =      0
 
       162,   REENTER AT DMAP SEQUENCE NUMBER   141
       163,   XVPS    ,   FLAGS = 0,   REEL =  1,   FILE =     76
       164,   OUGV2   ,   FLAGS = 0,   REEL =  0,   FILE =      0
1     DELTA WING WITH BICONVEX CROSS SECTION                                /    95 SUN SOLARIS NASTRAN    / FEB 25, ** / PAGE    20
      NASTRAN DEMONSTRATION PROBLEM NO. D01-01-1A                                                                                   
0     LOAD ON TRAILING EDGE                                                                                                         
 
                                             D I S P L A C E M E N T   V E C T O R
 
      POINT ID.   TYPE          T1             T2             T3             R1             R2             R3
            11      G      0.0            6.324336E-04   3.847637E-02   0.0            0.0            0.0                           
            12      G      6.033964E-04   5.776667E-04   3.479713E-02   0.0            0.0            0.0                           
            13      G      2.220058E-03   2.253107E-04   0.0            0.0            0.0            0.0                           
            14      G      4.097931E-03  -5.409957E-04  -8.076687E-02   0.0            0.0            0.0                           
            15      G      6.398431E-03  -2.074206E-03  -2.195700E-01   0.0            0.0            0.0                           
            16      G      7.089230E-03  -4.203733E-03  -4.209551E-01   0.0            0.0            0.0                           
            31      G      0.0            6.870247E-04   2.966840E-02   0.0            0.0            0.0                           
            32      G      1.366289E-03   6.476073E-04   2.631671E-02   0.0            0.0            0.0                           
            33      G      4.411643E-03  -1.916482E-04   0.0            0.0            0.0            0.0                           
            34      G      7.088438E-03  -1.931616E-03  -6.207531E-02   0.0            0.0            0.0                           
            35      G      8.206985E-03  -4.198725E-03  -1.598656E-01   0.0            0.0            0.0                           
            36      G      4.831543E-03  -3.992838E-03  -2.894586E-01   0.0            0.0            0.0                           
            51      G      0.0            4.192139E-04   2.242164E-02   0.0            0.0            0.0                           
            52      G      1.258551E-03   4.601633E-04   1.987864E-02   0.0            0.0            0.0                           
            53      G      3.767414E-03  -3.264452E-04   0.0            0.0            0.0            0.0                           
            54      G      4.726015E-03  -1.830950E-03  -4.124285E-02   0.0            0.0            0.0                           
            55      G      2.851832E-03  -1.795948E-03  -1.019759E-01   0.0            0.0            0.0                           
            71      G      0.0            1.563207E-04   1.654244E-02   0.0            0.0            0.0                           
            72      G      7.786145E-04   2.831707E-04   1.468035E-02   0.0            0.0            0.0                           
            73      G      2.009976E-03  -1.704567E-04   0.0            0.0            0.0            0.0                           
            74      G      1.123426E-03  -4.673043E-04  -2.281448E-02   0.0            0.0            0.0                           
            91      G      0.0           -1.637811E-04   1.244695E-02   0.0            0.0            0.0                           
            92      G      2.828088E-04   2.348802E-05   1.059366E-02   0.0            0.0            0.0                           
            93      G      5.086839E-04   6.454706E-05   0.0            0.0            0.0            0.0                           
1     DELTA WING WITH BICONVEX CROSS SECTION                                /    95 SUN SOLARIS NASTRAN    / FEB 25, ** / PAGE    21
      NASTRAN DEMONSTRATION PROBLEM NO. D01-01-1A                                                                                   
0     LOAD ON TRAILING EDGE                                                                                                         
 
                               F O R C E S   O F   S I N G L E - P O I N T   C O N S T R A I N T
 
      POINT ID.   TYPE          T1             T2             T3             R1             R2             R3
             1      G      3.437890E-10   0.0            0.0            0.0            0.0            0.0                           
             2      G      1.021787E+02  -4.147849E+01   0.0            0.0            0.0            0.0                           
             3      G      8.093253E+02  -6.578418E+01   0.0            0.0            0.0            0.0                           
             4      G      1.625244E+03   1.123495E+02   0.0            0.0            0.0            0.0                           
             5      G      4.263888E+03  -5.586543E+02   0.0            0.0            0.0            0.0                           
             6      G      3.345791E+03  -2.564133E+03   0.0            0.0            0.0            0.0                           
            11      G     -9.199276E+02   0.0            0.0            0.0            0.0            0.0                           
            13      G      0.0            0.0            2.810581E+01   0.0            0.0            0.0                           
            21      G     -8.513433E+00   0.0            0.0            0.0            0.0            0.0                           
            22      G     -6.478534E+02   3.638941E+02   0.0            0.0            0.0            0.0                           
            23      G     -1.400076E+02   5.867921E+02   0.0            0.0            0.0            0.0                           
            24      G      1.238272E+03   1.483140E+02   0.0            0.0            0.0            0.0                           
            25      G      2.088307E+03  -1.325561E+03   0.0            0.0            0.0            0.0                           
            26      G      1.006224E+03  -2.220991E+03   0.0            0.0            0.0            0.0                           
            31      G     -4.961396E+03   0.0            0.0            0.0            0.0            0.0                           
            33      G      0.0            0.0            4.740927E+02   0.0            0.0            0.0                           
            41      G     -1.610839E+01   0.0            0.0            0.0            0.0            0.0                           
            42      G     -2.648605E+02   9.232639E+02   0.0            0.0            0.0            0.0                           
            43      G      1.444491E+01   1.278447E+03   0.0            0.0            0.0            0.0                           
            44      G      6.200110E+02  -1.544308E+02   0.0            0.0            0.0            0.0                           
            45      G     -2.610162E+02  -1.490766E+02   0.0            0.0            0.0            0.0                           
            51      G     -4.661155E+03   0.0            0.0            0.0            0.0            0.0                           
            53      G      0.0            0.0            2.590671E+02   0.0            0.0            0.0                           
            61      G     -1.828876E+01   0.0            0.0            0.0            0.0            0.0                           
            62      G      2.264881E+02   1.056765E+03   0.0            0.0            0.0            0.0                           
            63      G      3.993870E+02   8.343730E+02   0.0            0.0            0.0            0.0                           
            64      G     -5.921990E+02   5.564138E+02   0.0            0.0            0.0            0.0                           
            71      G     -2.908484E+03   0.0            0.0            0.0            0.0            0.0                           
            73      G      0.0            0.0           -5.283544E+01   0.0            0.0            0.0                           
            81      G      3.625764E+01   0.0            0.0            0.0            0.0            0.0                           
            82      G      2.995266E+02   5.388736E+02   0.0            0.0            0.0            0.0                           
            83      G     -2.088523E+02   6.806235E+02   0.0            0.0            0.0            0.0                           
            91      G     -4.666819E+02   0.0            0.0            0.0            0.0            0.0                           
            93      G      0.0            0.0           -1.211657E+02   0.0            0.0            0.0                           
1     DELTA WING WITH BICONVEX CROSS SECTION                                /    95 SUN SOLARIS NASTRAN    / FEB 25, ** / PAGE    22
      NASTRAN DEMONSTRATION PROBLEM NO. D01-01-1A                                                                                   
0     LOAD ON TRAILING EDGE                                                                                                         
 
                     S T R E S S E S   I N   Q U A D R I L A T E R A L   M E M B R A N E S      ( C Q D M E M )
  ELEMENT           STRESSES IN ELEMENT COORD SYSTEM            PRINCIPAL           PRINCIPAL STRESSES            MAX
    ID.           NORMAL-X       NORMAL-Y       SHEAR-XY      STRESS ANGLE         MAJOR          MINOR          SHEAR
        1        1.047577E+03   7.780377E+01  -2.687054E+01       -1.5859       1.048321E+03   7.705984E+01   4.856307E+02          
        2        1.258909E+03   1.559517E+02  -1.900547E+02       -9.5077       1.290740E+03   1.241213E+02   5.833092E+02          
        3        1.454514E+03   2.099732E+02  -5.288627E+02      -20.1805       1.648893E+03   1.559436E+01   8.166495E+02          
        4        1.530021E+03   3.051870E+02  -9.660939E+02      -28.8145       2.061454E+03  -2.262456E+02   1.143850E+03          
        5        8.677354E+02   2.800330E+02  -1.186312E+03      -38.0439       1.796048E+03  -6.482794E+02   1.222164E+03          
        6        1.437452E+03   2.417840E+02  -3.403931E+01       -1.6294       1.438420E+03   2.408157E+02   5.988023E+02          
        7        1.548277E+03   3.472693E+02  -3.301078E+02      -14.3992       1.633029E+03   2.625170E+02   6.852562E+02          
        8        1.602453E+03   4.718090E+02  -7.723521E+02      -26.8989       1.994271E+03   7.999109E+01   9.571398E+02          
        9        1.260114E+03   5.290258E+02  -1.009009E+03      -35.0428       1.967753E+03  -1.786132E+02   1.073183E+03          
       11        1.145388E+03   2.868716E+02   3.185905E+00        0.2126       1.145400E+03   2.868598E+02   4.292699E+02          
       12        1.075743E+03   3.442844E+02  -2.785873E+02      -18.6488       1.169763E+03   2.502651E+02   4.597488E+02          
       13        8.394593E+02   4.091735E+02  -5.766976E+02      -34.7707       1.239838E+03   8.794983E+00   6.155214E+02          
       15        5.989388E+02   1.566624E+02   5.772393E+01        7.3148       6.063486E+02   1.492527E+02   2.285479E+02          
       16        4.351873E+02   1.876864E+02  -8.916216E+01      -17.8864       4.639625E+02   1.589112E+02   1.525256E+02          
1     DELTA WING WITH BICONVEX CROSS SECTION                                /    95 SUN SOLARIS NASTRAN    / FEB 25, ** / PAGE    23
      NASTRAN DEMONSTRATION PROBLEM NO. D01-01-1A                                                                                   
0     LOAD ON TRAILING EDGE                                                                                                         
 
                                        S T R E S S E S   I N   S H E A R   P A N E L S      ( C S H E A R )
         ELEMENT            MAX            AVG        SAFETY         ELEMENT            MAX            AVG        SAFETY
           ID.             SHEAR          SHEAR       MARGIN           ID.             SHEAR          SHEAR       MARGIN
              18        4.882812E-04   4.882812E-04                       19        7.298474E+01  -7.298474E+01                     
              20        5.051035E+02  -5.051035E+02                       21        6.557832E+02  -6.557832E+02                     
              22        2.389848E+03  -2.389848E+03                       28        2.301172E+01   2.301172E+01                     
              29        1.776801E+02   1.776801E+02                       30        2.534560E+02  -1.964501E+02                     
              31        6.067438E+02  -3.569009E+02                       35        5.179639E+01  -5.179639E+01                     
              36        1.880494E+02  -1.880494E+02                       41        1.157526E+02   6.741360E+01                     
              42        5.584280E+02  -4.737542E+02                       43        5.355754E+02  -4.543666E+02                     
              44        3.668766E+02  -2.136667E+02                       50        1.831521E+03   1.831521E+03                     
1     DELTA WING WITH BICONVEX CROSS SECTION                                /    95 SUN SOLARIS NASTRAN    / FEB 25, ** / PAGE    24
      NASTRAN DEMONSTRATION PROBLEM NO. D01-01-1A                                                                                   
0     LOAD ON TRAILING EDGE                                                                                                         
 
                      S T R E S S E S   I N   T R I A N G U L A R   M E M B R A N E S      ( C T R M E M )
  ELEMENT           STRESSES IN ELEMENT COORD SYSTEM            PRINCIPAL           PRINCIPAL STRESSES            MAX
    ID.           NORMAL-X       NORMAL-Y       SHEAR-XY      STRESS ANGLE         MAJOR          MINOR          SHEAR
       10        9.289655E+02   5.273892E+02  -6.009224E+02      -35.7619       1.361757E+03   9.459741E+01   6.335800E+02          
       14        8.097109E+02   4.743100E+02  -2.985856E+02      -30.3396       9.844674E+02   2.995535E+02   3.424570E+02          
       17        3.312278E+02   2.219514E+02  -8.628570E+01      -28.8285       3.787197E+02   1.744595E+02   1.021301E+02          
1     DELTA WING WITH BICONVEX CROSS SECTION                                /    95 SUN SOLARIS NASTRAN    / FEB 25, ** / PAGE    25
      NASTRAN DEMONSTRATION PROBLEM NO. D01-01-1A                                                                                   

      LOAD ON TRAILING EDGE                                                                                                         




0*** SYSTEM WARNING MESSAGE 3022
+                                 (SEE PROG. MANUAL SEC. 4.9.7, OR USERS' MANUAL P. 6.5-3)
     DATA BLOCK ONRGY1   MAY BE REQUIRED AS INPUT AND IS NOT OUTPUT BY A PREVIOUS MODULE IN THE CURRENT DMAP ROUTE.
1     DELTA WING WITH BICONVEX CROSS SECTION                                /    95 SUN SOLARIS NASTRAN    / FEB 25, ** / PAGE    26
      NASTRAN DEMONSTRATION PROBLEM NO. D01-01-1A                                                                                   
0     LOAD ON TRAILING EDGE                                                                                                         
0        ADDITIONS TO CHECKPOINT DICTIONARY                                                                                         
                                                                                                                                    
                                                                                                                                    
 
       165,   REENTER AT DMAP SEQUENCE NUMBER   149
       166,   XVPS    ,   FLAGS = 0,   REEL =  1,   FILE =     77
       167,   OESF1X  ,   FLAGS = 0,   REEL =  0,   FILE =      0
       168,   OESF1Y  ,   FLAGS = 0,   REEL =  0,   FILE =      0
 
       169,   REENTER AT DMAP SEQUENCE NUMBER   172
       170,   XVPS    ,   FLAGS = 0,   REEL =  1,   FILE =     78
       171,   DUMMY   ,   FLAGS = 0,   REEL =  0,   FILE =      0




                                        * * * END OF JOB * * *
1
 JOB TITLE =  DELTA WING WITH BICONVEX CROSS SECTION                             
 DATE:  2/25/**
 END TIME: 16:20:31
 TOTAL WALL CLOCK TIME      0 SEC.
 
